VERSION 17
*******************************************************************************
*** TRNSYS input file (deck) generated by TrnsysStudio
*** on środa, luty 07, 2018 at 13:21
*** from TrnsysStudio project: P:\Projekty\Rennovates\WP 02 RTD SIMULATIONS\TRNSYS\_Baseline\Baseline_cluster1.tpf
*** 
*** If you edit this file, use the File/Import TRNSYS Input File function in 
*** TrnsysStudio to update the project. 
*** 
*** If you have problems, questions or suggestions please contact your local 
*** TRNSYS distributor or mailto:software@cstb.fr 
*** 
*******************************************************************************


*******************************************************************************
*** Units 
*******************************************************************************

*******************************************************************************
*** Control cards
*******************************************************************************
* START, STOP and STEP
CONSTANTS 3
START=0
STOP=8760
STEP=0.249999993
SIMULATION 	 START	 STOP	 STEP	! Start time	End time	Time step
TOLERANCES 0.001 0.001			! Integration	 Convergence
LIMITS 3000 30 30				! Max iterations	Max warnings	Trace limit
DFQ 1					! TRNSYS numerical integration solver method
WIDTH 72				! TRNSYS output file width, number of characters
LIST 					! NOLIST statement
					! MAP statement
SOLVER 0 1 1				! Solver statement	Minimum relaxation factor	Maximum relaxation factor
NAN_CHECK 0				! Nan DEBUG statement
OVERWRITE_CHECK 0			! Overwrite DEBUG statement
TIME_REPORT 0			! disable time report
EQSOLVER 0				! EQUATION SOLVER statement
ETRACE START STOP			! EQUATION TRACE statement

* User defined CONSTANTS 


* EQUATIONS "Control"
* 
EQUATIONS 10
Pload1_1 = max(([18,2]-[34,4]),0)
PDEGSmin_1 = 1*0.4*CHP_Pel_1
PDEGSmax_1 = 1*1*CHP_Pel_1
PDEGS_1 = max(Pload1_1,PDEGSmin_1)
PDEGSwlot_1 = min(PDEGSma_1x,PDEGS_1)
wlacznik_1 = GT(Pload1_1,0)*1+(1-GT(Pload1_1,0))*0
wlacznik1_1 = GT(Pload1_1,PDEGSmin_1)*1 + (1-GT(Pload1_1,PDEGSmin_1))*1
wlacznikfinal_1 = min(wlacznik_1,wlacznik_11)
CHP_Pel_1 = 50000
EnElBought_1 = max(0,[18,2]-[34,4]-PDEGSwlot_1) ! electric energy bought from net
*$UNIT_NAME Control
*$LAYER Main
*$POSITION 576 316

*------------------------------------------------------------------------------


* Model "power demand" (Type 9)
* 

UNIT 18 TYPE 9	 power demand
*$UNIT_NAME power demand
*$MODEL .\Utility\Data Readers\Generic Data Files\First Line is Simulation Start\Free Format\Type9a.tmf
*$POSITION 586 167
*$LAYER Main # 
PARAMETERS 18
2		! 1 Mode
1		! 2 Header Lines to Skip
3		! 3 No. of values to read
1		! 4 Time interval of data
1		! 5 Interpolate or not?-1
1000		! 6 Multiplication factor-1
0		! 7 Addition factor-1
1		! 8 Average or instantaneous value-1
1		! 9 Interpolate or not?-2
1000		! 10 Multiplication factor-2
0		! 11 Addition factor-2
1		! 12 Average or instantaneous value-2
1		! 13 Interpolate or not?-3
1000		! 14 Multiplication factor-3
0		! 15 Addition factor-3
1		! 16 Average or instantaneous value-3
86		! 17 Logical unit for input file
-1		! 18 Free format mode
*** External files
ASSIGN "Input\stawki_prad.txt" 86
*|? Input file name |1000
*------------------------------------------------------------------------------

* Model "CHP controller" (Type 102)
* 

UNIT 19 TYPE 102	 CHP controller
*$UNIT_NAME CHP controller
*$MODEL .\Electrical\Diesel Engine (DEGS)\DEGS Dispatch Controller\Type102a.tmf
*$POSITION 1807 106
*$LAYER Main # 
PARAMETERS 5
1		! 1 Minimum number of DEGS in operation
1		! 2 Maximum number of DEGS in operation
250		! 3 DEGS rated power
0.4		! 4 Minimum turndown
1		! 5 Maximum power
INPUTS 1
PDEGSwlot_1		! Control:PDEGSwlot_1 ->Load power
*** INITIAL INPUT VALUES
500000 
*------------------------------------------------------------------------------

* Model "CHP engine" (Type 120)
* 

UNIT 20 TYPE 120	 CHP engine
*$UNIT_NAME CHP engine
*$MODEL .\Electrical\Diesel Engine (DEGS)\Generic Model\Type120a.tmf
*$POSITION 1807 208
*$LAYER Main # 
*$# Generic Model DEGS
PARAMETERS 5
1		! 1 DEGS mode
5		! 2 DEGS fuel type
250		! 3 Maximum DEGS power
10		! 4 Minimum DEGS power
250		! 5 Rated power
INPUTS 3
wlacznikfinal_1		! Control:wlacznikfinal_1 ->DEGS on/off switch
19,1 		! CHP controller:Single DEG power ->DEGS power set point
19,2 		! CHP controller:Number of DEGS in operation ->Number of units on
*** INITIAL INPUT VALUES
1 300000 1 
*------------------------------------------------------------------------------

* EQUATIONS "Heat Production by CHP"
* 
EQUATIONS 4
PthCHP = GT([20,1],0)*(A*[20,1]+B*1000) 
A = 1.6668
B = 5.86345
PthCHPnom = GT(CHP_Pel_1,0)*(A*CHP_Pel_1+B*1000)    
*$UNIT_NAME Heat Production by CHP
*$LAYER Main
*$POSITION 1632 207

*------------------------------------------------------------------------------


* Model "DHW demand" (Type 9)
* 

UNIT 23 TYPE 9	 DHW demand
*$UNIT_NAME DHW demand
*$MODEL .\Utility\Data Readers\Generic Data Files\First Line is Simulation Start\Free Format\Type9a.tmf
*$POSITION 275 181
*$LAYER Main # 
PARAMETERS 10
2		! 1 Mode
1		! 2 Header Lines to Skip
1		! 3 No. of values to read
1		! 4 Time interval of data
1		! 5 Interpolate or not?
1		! 6 Multiplication factor
0		! 7 Addition factor
1		! 8 Average or instantaneous value
87		! 9 Logical unit for input file
-1		! 10 Free format mode
*** External files
ASSIGN "Input\stawki_dhw.txt" 87
*|? Input file name |1000
*------------------------------------------------------------------------------

* EQUATIONS "DHW flow_demand"
* 
EQUATIONS 4
Demand_FR_1 = ((0.001*[23,1])/(4.19*(Tload_1-Tcold_1)))*3600
Tcold_1 = 15
Tload_1 = 60
T_hotNet_1 = 90
*$UNIT_NAME DHW flow_demand
*$LAYER Main
*$POSITION 247 292

*------------------------------------------------------------------------------


* EQUATIONS "Heat _from_CHP"
* 
EQUATIONS 2
TankTempHot_1 = max(GT(PthCHP,0)*(20+[44,1]),[44,1])
TankFR_Hot_1 = [40,2]
*$UNIT_NAME Heat _from_CHP
*$LAYER Main
*$POSITION 128 181

*------------------------------------------------------------------------------


* EQUATIONS "DHW Energy rates"
* 
EQUATIONS 6
EnergyRatFromCHP_1 = 1000*PumpSignal*4.19*[40,2]*(TankTempHot_1-[29,20])/3600
EnergyRatToDHW_1 = 1000*([29,5]+[30,5])/3600 ! dhw energy produced
PumpFR_1 = max(0.7*PumpFRnom_1,(3.6*PthCHP)/(20*4.19))
PumpFRnom_1 = (3.6*PthCHPnom)/(20*4.19)
Pumpsignal_1 = min(1,PumpFR_1/PumpFRnom_1)
CHPTdelta_1 = TankTempHot_1-[29,20]
*$UNIT_NAME DHW Energy rates
*$LAYER Main
*$POSITION 399 243

*------------------------------------------------------------------------------


* Model "CHP_Recirc_pump" (Type 110)
* 

UNIT 40 TYPE 110	 CHP_Recirc_pump
*$UNIT_NAME CHP_Recirc_pump
*$MODEL .\Hydronics\Pumps\Variable Speed\Type110.tmf
*$POSITION 402 141
*$LAYER Main # 
*$# VARIABLE-SPEED PUMP
PARAMETERS 6
2040		! 1 Rated flow rate
4.19		! 2 Fluid specific heat
2684.0		! 3 Rated power
0.0		! 4 Motor heat loss fraction
1		! 5 Number of power coefficients
1		! 6 Power coefficient
INPUTS 5
0,0		! [unconnected] Inlet fluid temperature
0,0		! [unconnected] Inlet fluid flow rate
Pumpsignal_1		! DHW Energy rates:Pumpsignal_1 ->Control signal
0,0		! [unconnected] Total pump efficiency
0,0		! [unconnected] Motor efficiency
*** INITIAL INPUT VALUES
20.0 0.0 1 0.7 0.9 
*------------------------------------------------------------------------------

* EQUATIONS "Spaceheating"
* 
EQUATIONS 1
EnergyRateToDSH_1 = max(0,PthCHP-EnergyRateToDHW)
*$UNIT_NAME Spaceheating
*$LAYER Main
*$POSITION 1632 101

*------------------------------------------------------------------------------


* Model "EnergyMonthly" (Type 46)
* 

UNIT 25 TYPE 46	 EnergyMonthly
*$UNIT_NAME EnergyMonthly
*$MODEL .\Output\Printegrator\Unformatted\User-Defined and Automatic Monthly Periods\Type46b.tmf
*$POSITION 58 969
*$LAYER Main # 
*$# PRINTEGRATOR
PARAMETERS 5
89		! 1 Logical unit
90		! 2 Logical unit for monthly summaries
0		! 3 Relative or absolute start time
24.000001		! 4 Printing & integrating interval
0		! 5 Number of inputs to avoid integration
INPUTS 72
34,4 		! 1_PV-Inverter:Power at maximum power point ->1
20,1 		! CHP engine:Total power delivered ->1
0,0		! [unconnected] 1
0,0		! [unconnected] 1
0,0		! [unconnected] 1
0,0		! [unconnected] 1
0,0		! [unconnected] 1
20,3 		! CHP engine:Gas fuel consumption rate ->1
66,4 		! 1_PV-Inverter-2:Power at maximum power point ->2
0,0		! [unconnected] 2
0,0		! [unconnected] 2
0,0		! [unconnected] 2
0,0		! [unconnected] 2
0,0		! [unconnected] 2
0,0		! [unconnected] 2
0,0		! [unconnected] 2
87,4 		! 1_PV-Inverter-3:Power at maximum power point ->3
0,0		! [unconnected] 3
0,0		! [unconnected] 3
0,0		! [unconnected] 3
0,0		! [unconnected] 3
0,0		! [unconnected] 3
0,0		! [unconnected] 3
0,0		! [unconnected] 3
108,4 		! 1_PV-Inverter-4:Power at maximum power point ->4
0,0		! [unconnected] 4
0,0		! [unconnected] 4
0,0		! [unconnected] 4
0,0		! [unconnected] 4
0,0		! [unconnected] 4
0,0		! [unconnected] 4
0,0		! [unconnected] 4
129,4 		! 1_PV-Inverter-5:Power at maximum power point ->5
0,0		! [unconnected] 5
0,0		! [unconnected] 5
0,0		! [unconnected] 5
0,0		! [unconnected] 5
0,0		! [unconnected] 5
0,0		! [unconnected] 5
0,0		! [unconnected] 5
150,4 		! 1_PV-Inverter-6:Power at maximum power point ->6
0,0		! [unconnected] 6
0,0		! [unconnected] 6
0,0		! [unconnected] 6
0,0		! [unconnected] 6
0,0		! [unconnected] 6
0,0		! [unconnected] 6
0,0		! [unconnected] 6
171,4 		! 1_PV-Inverter-7:Power at maximum power point ->7
0,0		! [unconnected] 7
0,0		! [unconnected] 7
0,0		! [unconnected] 7
0,0		! [unconnected] 7
0,0		! [unconnected] 7
0,0		! [unconnected] 7
0,0		! [unconnected] 7
192,4 		! 1_PV-Inverter-8:Power at maximum power point ->8
0,0		! [unconnected] 8
0,0		! [unconnected] 8
0,0		! [unconnected] 8
0,0		! [unconnected] 8
0,0		! [unconnected] 8
0,0		! [unconnected] 8
0,0		! [unconnected] 8
213,4 		! 1_PV-Inverter-9:Power at maximum power point ->9
0,0		! [unconnected] 9
0,0		! [unconnected] 9
0,0		! [unconnected] 9
0,0		! [unconnected] 9
0,0		! [unconnected] 9
0,0		! [unconnected] 9
0,0		! [unconnected] 9
*** INITIAL INPUT VALUES
1E_PVout 1E_CHPout 1Q_DHWout 1Q_SHout 1Q_DHWin 1Q_SHin 1E_in 1_GASin
2E_PVout 2E_CHPout 2Q_DHWout 2Q_SHout 2Q_DHWin 2Q_SHin 2E_in 2_GASin
3E_PVout 3E_CHPout 3Q_DHWout 3Q_SHout 3Q_DHWin 3Q_SHin 3E_in 3_GASin
4E_PVout 4E_CHPout 4Q_DHWout 4Q_SHout 4Q_DHWin 4Q_SHin 4E_in 4_GASin
5E_PVout 5E_CHPout 5Q_DHWout 5Q_SHout 5Q_DHWin 5Q_SHin 5E_in 5_GASin
6E_PVout 6E_CHPou6 6Q_DHWout 6Q_SHout 6Q_DHWin 6Q_SHin 6E_in 6_GASin
7E_PVout 7E_CHPout 7Q_DHWout 7Q_SHout 7Q_DHWin 7Q_SHin 7E_in 7_GASin
8E_PVout 8E_CHPout 8Q_DHWout 8Q_SHout 8Q_DHWin 8Q_SHin 8E_in 8_GASin
9E_PVout 9E_CHPout 9Q_DHWout 9Q_SHout 9Q_DHWin 9Q_SHin 9E_in 9_GASin

LABELS 8
PVel CHPel QDHout QSHout QDHWin QSHin Elin Gasin
*** External files
ASSIGN "res\Bills.dat" 89
*|? Output file for integrated user-defined period results? |1000
ASSIGN "res\Bills2.dat" 90
*|? Output file for automatic monthly integrated results? |1000
*------------------------------------------------------------------------------

* Model "Temperatures" (Type 65)
* 

UNIT 33 TYPE 65	 Temperatures
*$UNIT_NAME Temperatures
*$MODEL .\Output\Online Plotter\Online Plotter With File\TRNSYS-Supplied Units\Type65a.tmf
*$POSITION 78 234
*$LAYER Main # 
PARAMETERS 12
10		! 1 Nb. of left-axis variables
3		! 2 Nb. of right-axis variables
0.0		! 3 Left axis minimum
100		! 4 Left axis maximum
0.0		! 5 Right axis minimum
1000.0		! 6 Right axis maximum
1		! 7 Number of plots per simulation
12		! 8 X-axis gridpoints
0		! 9 Shut off Online w/o removing
91		! 10 Logical Unit for output file
2		! 11 Output file units
0		! 12 Output file delimiter
INPUTS 13
0,0		! [unconnected] Left axis variable-1
29,1 		! AF3000:Temperature at outlet ->Left axis variable-2
44,1 		! DryCooler:Fluid outlet temperature ->Left axis variable-3
0,0		! [unconnected] Left axis variable-4
30,3 		! PreheatFreshWater:Load side outlet temperature ->Left axis variable-5
30,1 		! PreheatFreshWater:Source-side outlet temperature ->Left axis variable-6
32,1 		! Diverter:Temperature at outlet 1 ->Left axis variable-7
46,1 		! SH_HX3:Source-side outlet temperature ->Left axis variable-8
29,20 		! AF3000:Temperature at HX Outlet ->Left axis variable-9
28,1 		! TeePiece:Outlet temperature ->Left axis variable-10
0,0		! [unconnected] Right axis variable-1
0,0		! [unconnected] Right axis variable-2
0,0		! [unconnected] Right axis variable-3
*** INITIAL INPUT VALUES
Tcold_fromNet T_to_DHW Treturn_from_DryCooler_to_CHP Tsource HX1out_toTank
HX1out_to_Diverter Tout_from_Diverter_to_HX2 HX3_Tout_source HX2_Tout_source
TeePiece_Tout LMTD dT1 dT2 
LABELS  3
"Temperatures"
"Heat transfer rates"
"Temperatures"
*** External files
ASSIGN "Temperatures.dat" 91
*|? What file should the online print to? |1000
*------------------------------------------------------------------------------

* Model "FRates" (Type 65)
* 

UNIT 39 TYPE 65	 FRates
*$UNIT_NAME FRates
*$MODEL .\Output\Online Plotter\Online Plotter With File\TRNSYS-Supplied Units\Type65a.tmf
*$POSITION 79 301
*$LAYER Main # 
PARAMETERS 12
6		! 1 Nb. of left-axis variables
3		! 2 Nb. of right-axis variables
0.0		! 3 Left axis minimum
3000		! 4 Left axis maximum
0.0		! 5 Right axis minimum
1		! 6 Right axis maximum
1		! 7 Number of plots per simulation
12		! 8 X-axis gridpoints
0		! 9 Shut off Online w/o removing
125		! 10 Logical Unit for output file
2		! 11 Output file units
0		! 12 Output file delimiter
INPUTS 9
0,0		! [unconnected] Left axis variable-1
29,21 		! AF3000:HX flow rate ->Left axis variable-2
30,2 		! PreheatFreshWater:Source side flow rate ->Left axis variable-3
28,2 		! TeePiece:Outlet flow rate ->Left axis variable-4
32,2 		! Diverter:Flow rate at outlet 1 ->Left axis variable-5
32,4 		! Diverter:Flow rate at outlet 2 ->Left axis variable-6
44,8 		! DryCooler:Relative fan speed ->Right axis variable-1
PumpFR_1		! [equation] Right axis variable-2
0,0		! [unconnected] Right axis variable-3
*** INITIAL INPUT VALUES
DHWDemand HX2 HX1 TeePiece DivOut1Tank DivOut2TeePiec FanSpeed PumpFR_1
PumpSignal 
LABELS  3
"Flow Rates"
"Heat transfer rates"
Flow Rates"
*** External files
ASSIGN "FR.dat" 125
*|? What file should the online print to? |1000
*------------------------------------------------------------------------------

* Model "AF3000" (Type 534)
* 

UNIT 29 TYPE 534	 AF3000
*$UNIT_NAME AF3000
*$MODEL .\Storage Tank Library (TESS)\Cylindrical Storage Tank\Vertical Cylinder\Version without Plug-In\Coiled Tube HXs\Type534-Coiled.tmf
*$POSITION 516 394
*$LAYER Main # 
*$# Cylindrical Storage Tank
PARAMETERS 60
-1		! 1 LU for data file
5		! 2 Number of tank nodes
1		! 3 Number of ports
1		! 4 Number of immersed heat exchangers
1		! 5 Number of miscellaneous heat flows
3		! 6 Tank volume
1.5		! 7 Tank height
0		! 8 Tank fluid
4.19		! 9 Fluid specific heat
1000		! 10 Fluid density
2.14		! 11 Fluid thermal conductivity
3.21		! 12 Fluid viscosity
0.00026		! 13 Fluid thermal expansion coefficient
5.0		! 14 Top loss coefficient
5.0		! 15 Edge loss coefficient for node-1
5.0		! 16 Edge loss coefficient for node-2
5.0		! 17 Edge loss coefficient for node-3
5.0		! 18 Edge loss coefficient for node-4
5.0		! 19 Edge loss coefficient for node-5
5.0		! 20 Bottom loss coefficient
0		! 21 Additional thermal conductivity
1		! 22 Inlet flow mode
1		! 23 Entry node
1		! 24 Exit node
3.0		! 25 Flue loss coefficient for node-1
3.0		! 26 Flue loss coefficient for node-2
3.0		! 27 Flue loss coefficient for node-3
3.0		! 28 Flue loss coefficient for node-4
3.0		! 29 Flue loss coefficient for node-5
1		! 30 Node for miscellaneous heat gain
3		! 31 Type of HX
5		! 32 Number of HX nodes
0		! 33 HX fluid
4.19		! 34 HX fluid specific heat
1000		! 35 HX fluid density
2.14		! 36 HX fluid thermal conductivity
3.21		! 37 HX fluid viscosity
0.6		! 38 Multiplier for natural convection
0.25		! 39 Exponent for natural convection
1.0		! 40 Geometry factor for natural convection
1.0		! 41 Geometry exponent for natural convection
0.035		! 42 Inner tube diameter
0.036505		! 43 Outer tube diameter
2.14		! 44 HX wall thermal conductivity
83		! 45 Length of HX tubes
1		! 46 Number of tubes
0		! 47 HX header volume
0.05		! 48 HX cross sectional area
1		! 49 Coil diameter
0.05		! 50 Coil pitch
1		! 51 Tank node for HX node-1
0.2		! 52 Fraction of HX length-1
1		! 53 Tank node for HX node-2
0.2		! 54 Fraction of HX length-2
1		! 55 Tank node for HX node-3
0.2		! 56 Fraction of HX length-3
1		! 57 Tank node for HX node-4
0.2		! 58 Fraction of HX length-4
1		! 59 Tank node for HX node-5
0.2		! 60 Fraction of HX length-5
INPUTS 19
30,3 		! PreheatFreshWater:Load side outlet temperature ->Inlet temperature for port
30,4 		! PreheatFreshWater:Load side flow rate ->Inlet flow rate for port
32,1 		! Diverter:Temperature at outlet 1 ->Inlet temperature for HX
32,2 		! Diverter:Flow rate at outlet 1 ->Inlet flow rate for HX
0,0		! [unconnected] Top loss temperature
0,0		! [unconnected] Edge loss temperature for node-1
0,0		! [unconnected] Edge loss temperature for node-2
0,0		! [unconnected] Edge loss temperature for node-3
0,0		! [unconnected] Edge loss temperature for node-4
0,0		! [unconnected] Edge loss temperature for node-5
0,0		! [unconnected] Bottom loss temperature
0,0		! [unconnected] Gas flue temperature
0,0		! [unconnected] Inversion mixing flow rate
0,0		! [unconnected] Auxiliary heat input for node-1
0,0		! [unconnected] Auxiliary heat input for node-2
0,0		! [unconnected] Auxiliary heat input for node-3
0,0		! [unconnected] Auxiliary heat input for node-4
0,0		! [unconnected] Auxiliary heat input for node-5
0,0		! [unconnected] Miscellaneous heat input
*** INITIAL INPUT VALUES
20.0 0.0 20.0 0.0 20.0 20.0 20.0 20.0 20.0 20.0 20.0 20.0 -100 0.0 0.0 0.0 0.0
0.0 0 
DERIVATIVES 5
20.0		! 1 Initial Tank Temperature-1
20.0		! 2 Initial Tank Temperature-2
20.0		! 3 Initial Tank Temperature-3
20.0		! 4 Initial Tank Temperature-4
20.0		! 5 Initial Tank Temperature-5
*------------------------------------------------------------------------------

* Model "Load_Tout" (Type 22)
* 

UNIT 22 TYPE 22	 Load_Tout
*$UNIT_NAME Load_Tout
*$MODEL .\Controllers\Iterative Feedback Controller\Type22.tmf
*$POSITION 612 167
*$LAYER Main # 
PARAMETERS 2
0		! 1 mode
0		! 2 Maximum number of oscillations
INPUTS 7
Tload_1		! DHW flow_demand:Tload_1 ->Setpoint
29,1 		! AF3000:Temperature at outlet ->Controlled variable
0,0		! [unconnected] On / Off signal
0,0		! [unconnected] Minimum control signal
0,0		! [unconnected] Maximum control signal
0,0		! [unconnected] Threshold for non-zero output
0,0		! [unconnected] Tolerance on tracking error
*** INITIAL INPUT VALUES
58 0 1 0 1 0 0 
*------------------------------------------------------------------------------

* Model "PreheatFreshWater" (Type 91)
* 

UNIT 30 TYPE 91	 PreheatFreshWater
*$UNIT_NAME PreheatFreshWater
*$MODEL .\Heat Exchangers\Constant Effectiveness\Type91.tmf
*$POSITION 247 394
*$LAYER Main # 
PARAMETERS 3
0		! 1 Heat exchanger effectiveness
4.19		! 2 Specific heat of source side fluid
4.19		! 3 Specific heat of load side fluid
INPUTS 4
TankTempHot_1		! Heat _from_CHP:TankTempHot_1 ->Source side inlet temperature
TankFR_Hot_1		! Heat _from_CHP:TankFR_Hot_1 ->Source side flow rate
Tcold_1		! DHW flow_demand:Tcold_1 ->Load side inlet temperature
Demand_FR_1		! DHW flow_demand:Demand_FR_1 ->Load side flow rate
*** INITIAL INPUT VALUES
20.0 100.0 20.0 100.0 
*------------------------------------------------------------------------------

* Model "1_PV-Inverter" (Type 194)
* 

UNIT 34 TYPE 194	 1_PV-Inverter
*$UNIT_NAME 1_PV-Inverter
*$MODEL .\Electrical\Photovoltaic Panels\With Inverter\Type194b.tmf
*$POSITION 700 316
*$LAYER Main # 
PARAMETERS 29
2		! 1 Mode
8.63		! 2 Module short-circuit current at reference conditions
37.68		! 3 Module open-circuit voltage at reference conditions
298		! 4 Reference temperature
1000		! 5 Reference insolation
30.93		! 6 Module voltage at max power point and reference conditions
8.08		! 7 Module current at max power point and reference conditions
0.07		! 8 Temperature coeficient of Isc at (ref. cond)
-0.34		! 9 Temperature coeficient of Voc (ref. cond.)
60		! 10 Number of cells wired in series
132		! 11 Number of modules in series
1		! 12 Number of modules in parallel
319		! 13 Module temperature at NOCT
293		! 14 Ambient temperature at NOCT
800		! 15 Insolation at NOCT
1.6		! 16 Module area
0.99		! 17 tau-alpha product for normal incidence
1.12		! 18 Semiconductor bandgap
1.9		! 19 Value of parameter "a" at reference conditions
5.4		! 20 Value of parameter I_L at reference conditions
0		! 21 Value of parametre I_0 at reference conditions
0.5		! 22 Module series resistance
45.81		! 23 Shunt resistance at reference conditions
0.008		! 24 Extinction coefficient-thickness product of cover
40800		! 25 Maximum inverter power
10000		! 26 Maximium inverter voltage
0		! 27 Minimum inverter voltage
0		! 28 Night tare
126		! 29 Logical unit number for inverter data
INPUTS 10
36,24 		! 1:Total tilted surface radiation for surface ->Total incident radiation on tilted surface
36,1 		! 1:Dry bulb temperature ->Ambient temperature
0,0		! [unconnected] Load voltage
36,30 		! 1:Slope of surface ->Array slope
36,25 		! 1:Beam radiation for surface ->Beam radiation on tilted surface
36,26 		! 1:Sky diffuse radiation for surface ->Sky diffuse radiation on tilted surface
36,27 		! 1:Ground reflected diffuse radiation for surface ->Ground diffuse radiation on tilted surface
36,29 		! 1:Angle of incidence for surface ->Incidence angle on tilted surface
36,16 		! 1:Solar zenith angle ->Solar zenith angle
36,8 		! 1:Wind velocity ->Wind speed
*** INITIAL INPUT VALUES
0 0 0 0 0 0 0 0 0 0 
*** External files
ASSIGN "C:\Dysk Google\CHP model\Type194-inverter.dat" 126
*|? What file contains the inverter parameters? |1000
*------------------------------------------------------------------------------

* Model "1" (Type 15)
* 

UNIT 36 TYPE 15	 1
*$UNIT_NAME 1
*$MODEL .\Weather Data Reading and Processing\Standard Format\TMY2\Type15-2.tmf
*$POSITION 817 314
*$LAYER Main # 
PARAMETERS 9
2		! 1 File Type
127		! 2 Logical unit
5		! 3 Tilted Surface Radiation Mode
0.2		! 4 Ground reflectance - no snow
0.7		! 5 Ground reflectance - snow cover
1		! 6 Number of surfaces
1		! 7 Tracking mode
45		! 8 Slope of surface
0		! 9 Azimuth of surface
*** External files
ASSIGN "C:\TRNSYS17\Weather\Meteonorm\Europe\PL-Warszawa-123750.tm2" 127
*|? Which file contains the TMY-2 weather data? |1000
*------------------------------------------------------------------------------

* Model "DryCooler" (Type 511)
* 

UNIT 44 TYPE 511	 DryCooler
*$UNIT_NAME DryCooler
*$MODEL .\HVAC Library (TESS)\Dry Fluid Cooler\Type511.tmf
*$POSITION 215 594
*$LAYER Main # 
*$# DRY FLUID COOLER
PARAMETERS 11
1		! 1 Heat exchanger mode
70		! 2 Design inlet fluid temperature
60		! 3 Design outlet fluid temperature
5678.12		! 4 Design fluid flow rate
4.190		! 5 Fluid specific heat
28.0		! 6 Design ambient air temperature
5678.12		! 7 Design air flow rate
5369.04		! 8 Rated fan power
10.0		! 9 Ratio of liquid h to air h
1		! 10 Number of power coefficients
1		! 11 Power coefficient
INPUTS 5
46,1 		! SH_HX3:Source-side outlet temperature ->Fluid inlet temperature
46,2 		! SH_HX3:Source side flow rate ->Fluid flow rate
36,1 		! 1:Dry bulb temperature ->Ambient temperature
0,0		! [unconnected] Fan control signal
0,0		! [unconnected] Desired outlet temperature
*** INITIAL INPUT VALUES
10.0 0.0 20.0 -1 70 
*------------------------------------------------------------------------------

* Model "TeePiece" (Type 11)
* 

UNIT 28 TYPE 11	 TeePiece
*$UNIT_NAME TeePiece
*$MODEL .\Hydronics\Tee-Piece\Other Fluids\Type11h.tmf
*$POSITION 689 434
*$LAYER Water Loop # 
PARAMETERS 1
1		! 1 Tee piece mode
INPUTS 4
29,20 		! AF3000:Temperature at HX Outlet ->Temperature at inlet 1
29,21 		! AF3000:HX flow rate ->Flow rate at inlet 1
32,3 		! Diverter:Temperature at outlet 2 ->Temperature at inlet 2
32,4 		! Diverter:Flow rate at outlet 2 ->Flow rate at inlet 2
*** INITIAL INPUT VALUES
20.0 100.0 20.0 100.0 
*------------------------------------------------------------------------------

* Model "Diverter" (Type 11)
* 

UNIT 32 TYPE 11	 Diverter
*$UNIT_NAME Diverter
*$MODEL .\Hydronics\Flow Diverter\Other Fluids\Type11f.tmf
*$POSITION 521 487
*$LAYER Water Loop # 
PARAMETERS 1
2		! 1 Controlled flow diverter mode
INPUTS 3
37,3 		! PostHeatCHPout:Load side outlet temperature ->Inlet temperature
37,4 		! PostHeatCHPout:Load side flow rate ->Inlet flow rate
22,1 		! Load_Tout:Control signal ->Control signal
*** INITIAL INPUT VALUES
20.0 100.0 1 
*------------------------------------------------------------------------------

* Model "PostHeatCHPout" (Type 91)
* 

UNIT 37 TYPE 91	 PostHeatCHPout
*$UNIT_NAME PostHeatCHPout
*$MODEL .\Heat Exchangers\Constant Effectiveness\Type91.tmf
*$POSITION 247 487
*$LAYER Main # 
PARAMETERS 3
1		! 1 Heat exchanger effectiveness
4.19		! 2 Specific heat of source side fluid
4.19		! 3 Specific heat of load side fluid
INPUTS 4
ThotNet_1		! Substation:ThotNet_1 ->Source side inlet temperature
msource_1		! Substation:msource_1 ->Source side flow rate
30,1 		! PreheatFreshWater:Source-side outlet temperature ->Load side inlet temperature
30,2 		! PreheatFreshWater:Source side flow rate ->Load side flow rate
*** INITIAL INPUT VALUES
20.0 100.0 20.0 100.0 
*------------------------------------------------------------------------------

* EQUATIONS "Substation"
* 
EQUATIONS 4
ThotNet_1 = 90
msource_1 = [37,4]
kWhFromSubstToDHW_1 = [37,5]/3.6 ! dhw energy bought from net
kWhDryCooler_1 = [44,3]/3.6
*$UNIT_NAME Substation
*$LAYER Main
*$POSITION 107 487

*------------------------------------------------------------------------------


* Model "Power" (Type 65)
* 

UNIT 43 TYPE 65	 Power
*$UNIT_NAME Power
*$MODEL .\Output\Online Plotter\Online Plotter With File\TRNSYS-Supplied Units\Type65a.tmf
*$POSITION 52 742
*$LAYER Main # 
PARAMETERS 12
9		! 1 Nb. of left-axis variables
8		! 2 Nb. of right-axis variables
0.0		! 3 Left axis minimum
100000		! 4 Left axis maximum
0.0		! 5 Right axis minimum
100000		! 6 Right axis maximum
1		! 7 Number of plots per simulation
12		! 8 X-axis gridpoints
0		! 9 Shut off Online w/o removing
128		! 10 Logical Unit for output file
2		! 11 Output file units
0		! 12 Output file delimiter
INPUTS 17
20,1 		! CHP engine:Total power delivered ->Left axis variable-1
PthCHP		! Heat Production by CHP:PthCHP ->Left axis variable-2
0,0		! [unconnected] Left axis variable-3
EnergyRatToDHW_2		! [equation] Left axis variable-4
kWhDryCooler_2		! [equation] Left axis variable-5
kWhFromSubstToDHW_2		! [equation] Left axis variable-6
34,4 		! 1_PV-Inverter:Power at maximum power point ->Left axis variable-7
18,3 		! power demand:Output 3 ->Left axis variable-8
23,1 		! DHW demand:Output 1 ->Left axis variable-9
0,0		! [unconnected] Right axis variable-1
0,0		! [unconnected] Right axis variable-2
45,1 		! SH demand:Output 1 ->Right axis variable-3
20,3 		! CHP engine:Gas fuel consumption rate ->Right axis variable-4
0,0		! [unconnected] Right axis variable-5
0,0		! [unconnected] Right axis variable-6
0,0		! [unconnected] Right axis variable-7
0,0		! [unconnected] Right axis variable-8
*** INITIAL INPUT VALUES
PelCHP PthCHP SH_rate EnergyRatToDHW_2 kWhDryCooler_2 kWhFromSubstToDHW_2
PVPower Pel_demand DHW_demand Q_HX3_from_sourceSide Q_HX3_toLoad
SH_demand GasConsumption Subst Fuel ElPower TotalEFF 
LABELS  3
"Temperatures"
"Heat transfer rates"
"Graph 1"
*** External files
ASSIGN "res\Power.dat" 128
*|? What file should the online print to? |1000
*------------------------------------------------------------------------------

* EQUATIONS "SH_calc"
* 
EQUATIONS 7
Tin_to_HX3_1 = 55 ! °C
FR_to_HX3_1 = (Q_sh_corr_2)/((max(1,(4.19*(abs(Tset_to_SH_1-Tin_to_HX3_1))))))*3.6 ! delta T is implicit but parameters should be 70/55°C so delta is 15°C
Tset_to_SH_1 = 70 !°C
Q_HX3_1 = [28,2]*4.19*max(0,abs(([28,1] - [46,1])))/3.6
Q_sh_corr_1 = min(Q_HX3_1,[45,1])
SH_HX3_prod_1 = [46,5]/3.6 !kWh/h sh energy produced and used
SH_bought_1 = max(0,[45,1] - SH_HX3_prod_1) !kWh/h sh energy bought
*$UNIT_NAME SH_calc
*$LAYER Main
*$POSITION 626 714

*------------------------------------------------------------------------------


* Model "SH demand" (Type 9)
* 

UNIT 45 TYPE 9	 SH demand
*$UNIT_NAME SH demand
*$MODEL .\Utility\Data Readers\Generic Data Files\First Line is Simulation Start\Free Format\Type9a.tmf
*$POSITION 430 174
*$LAYER Main # 
PARAMETERS 10
2		! 1 Mode
1		! 2 Header Lines to Skip
1		! 3 No. of values to read
1		! 4 Time interval of data
1		! 5 Interpolate or not?
1		! 6 Multiplication factor
0		! 7 Addition factor
1		! 8 Average or instantaneous value
130		! 9 Logical unit for input file
-1		! 10 Free format mode
*** External files
ASSIGN "Input\stawki_sh.txt" 130
*|? Input file name |1000
*------------------------------------------------------------------------------

* Model "SH_HX3" (Type 91)
* 

UNIT 46 TYPE 91	 SH_HX3
*$UNIT_NAME SH_HX3